<<<<<<< HEAD
 &time_control
 start_year                          = 2012, 2012, 2012,
 start_month                         = 10, 10, 10,
 start_day                           = 26, 26, 26,
 start_hour                          = 12, 12, 12,
 start_minute                        = 00,      00,     00,
 start_second                        = 00,      00,     00,
 end_year                            = 2012, 2012, 2012,
 end_month                           = 10, 10, 10,
 end_day                             = 31, 31, 31,
 end_hour                            = 12, 12, 12,
 end_minute                          = 00, 00, 00,
 end_second                          = 00,      00,     00,
 interval_seconds                    = 432000,
 history_interval                    = 180,         180,        180,
 auxhist1_interval                   = 600000,           600000,        600000
 frames_per_outfile                  = 1,1,1
 frames_per_auxhist1                 = 1,1,1
 analysis                            = F,    F,F  ,
 restart                             = .false.,
 restart_interval                    = 36000,
 reset_simulation_start              = F,
 io_form_input                       = 2
 io_form_history                     = 2
 io_form_restart                     = 2
 io_form_boundary                    = 2
 io_form_auxinput1                   = 2
 io_form_auxhist1                    = 2 
 auxinput1_inname                    = "met_nmm.d<domain>.<date>"
 debug_level                         = 1
 override_restart_timers             = T
 nocolons			     = T
 /

 &fdda
 /

 &domains
 time_step                           = 38,
 time_step_fract_num                 = 4,
 time_step_fract_den                 = 7,
 max_dom                             = 3,
 s_we                                = 1,             1,        1,
 e_we                                = 288,         142,       265,
 s_sn                                = 1,             1,        1,
 e_sn                                = 576,         274,       472,
 s_vert                              = 1,             1,	1,
 e_vert                              = 61,   61,    61,
 dx                                  = 0.135,      .045,   .015,
 dy                                  = 0.135,      .045,   .015,
 grid_id                             = 1,             2,	3,
 
 tile_sz_x                           = 0,
 tile_sz_y                           = 0,
 numtiles                            = 1,
 nproc_x                             = -1, ! must be on its own line
 nproc_y                             = -1, ! must be on its own line
 parent_id                           = 0,              1,	2,
 parent_grid_ratio                   = 1,              3,	3,
 parent_time_step_ratio              = 1,              3,	3,
 i_parent_start                      = 0,            125,	27,
 j_parent_start                      = 0,            243,	57,
 feedback                            = 1,
 num_moves                           = -99
 num_metgrid_levels                  = 22,
 p_top_requested                     =  200.0,
 ptsgm                               = 15000,
  eta_levels = 1.0, 0.995253, 0.990479, 0.985679, 0.980781, 0.975782, 0.970684, 0.965486, 0.960187, 0.954689, 0.948991, 0.943093, 0.936895, 0.930397, 0.923599, 0.916402, 0.908404, 0.899507, 0.888811, 0.876814, 0.862914, 0.847114, 0.829314, 0.809114, 0.786714, 0.762114, 0.735314, 0.706714, 0.676614, 0.645814, 0.614214, 0.582114, 0.549714, 0.517114, 0.484394, 0.451894, 0.419694, 0.388094, 0.356994, 0.326694, 0.297694, 0.270694, 0.245894, 0.223694, 0.203594, 0.185494, 0.169294, 0.154394, 0.140494, 0.127094, 0.114294, 0.101894, 0.089794, 0.078094, 0.066594, 0.055294, 0.044144, 0.033054, 0.022004, 0.010994, 0.0,
 use_prep_hybrid = F,
 num_metgrid_soil_levels = 4,
/
 &physics
 num_soil_layers                     = 4,
 mp_physics                          = 5,           5,	5,
 ra_lw_physics                       = 4,          4,		4,
 ra_sw_physics                       = 4,          4,		4,
 sf_sfclay_physics                   = 88,          88,    	88,
 sf_surface_physics                  = 2,          2,		2,
 bl_pbl_physics                      = 3,          3,		3,
 cu_physics                          = 84,         84,		0,
 mommix                              = 1.0,       1.0,		1.0,
 var_ric                             = 1.0,
 coef_ric_l                          = 0.16,
 coef_ric_s                          = 0.25,
 h_diff                              = 1.0,        1.0,		1.0,
 gwd_opt                             = 2, 0,		0,
 sfenth                              = 0.0,        0.0,		0.0,
 nrads                               =  28,84,252    ,
 nradl                               =  28,84,252    ,
 nphs                                =       2,6,6    ,
 ncnvc                               =       2,6,6    ,

 ntrack                              =  7,7,14         ,

! IMPORTANT: dt*nphs*movemin for domain 2 and 3 must be 540 and 180, respectively
!            AND the history output times (10800, 10800, 3600) must be
!            divisible by dt*nphs*movemin for domains 1, 2 and 3

 gfs_alpha                           = -1.0, -1.0, -1.0    ,
 sas_pgcon                           =  0.55,0.2,0.2 ,
sas_mass_flux     = 0.5,0.5,0.5, 
 co2tf                               = 1,
 vortex_tracker = 2, 2, 7, 

! Disable nest movement at certain intervals to prevent junk in the output files:
 nomove_freq                         = 0.0,      6.0,      6.0, ! hours
  tg_option = 1,
  ntornado = 2, 5, 15,
=======
&time_control
  start_year                          = 2012, 2012, 2012,
  start_month                         = 10, 10, 10,
  start_day                           = 26, 26, 26,
  start_hour                          = 12, 12, 12,
  start_minute                        = 00,      00,     00,
  start_second                        = 00,      00,     00,
  end_year                            = 2012, 2012, 2012,
  end_month                           = 10, 10, 10,
  end_day                             = 31, 31, 31,
  end_hour                            = 12, 12, 12,
  end_minute                          = 00, 00, 00,
  end_second                          = 00,      00,     00,
  interval_seconds                    = 432000,
  history_interval                    = 180,         180,        180,
  auxhist1_interval                   = 600000,           600000,        600000
  frames_per_outfile                  = 1,1,1
  frames_per_auxhist1                 = 1,1,1
  analysis                            = F,    F,F  ,
  restart                             = .false.,
  restart_interval                    = 36000,
  reset_simulation_start              = F,
  io_form_input                       = 2
  io_form_history                     = 2
  io_form_restart                     = 2
  io_form_boundary                    = 2
  io_form_auxinput1                   = 2
  io_form_auxhist1                    = 2
  auxinput1_inname = "met_nmm.d<domain>.<date>",
  debug_level = 1,
  nocolons = T,
/

&fdda

/

&domains
  time_step = 30,
  time_step_fract_num = 0,
  time_step_fract_den = 1,
  max_dom = 3,
  s_we = 1, 1, 1,
  e_we = 288, 265, 235,
  s_sn = 1, 1, 1,
  e_sn = 576, 532, 472,
  s_vert = 1, 1, 1,
  e_vert = 75, 75, 75,
  dx = 0.135, 0.045, 0.015,
  dy = 0.135, 0.045, 0.015,
  grid_id = 1, 2, 3,
  tile_sz_x = 0,
  tile_sz_y = 0,
  numtiles = 1,
  nproc_x = -1,
  nproc_y = -1,
  parent_id = 0, 1, 2,
  parent_grid_ratio = 1, 3, 3,
  parent_time_step_ratio = 1, 3, 3,
  i_parent_start = 0, 99, 93,
  j_parent_start = 0, 195, 187,
  feedback = 1,
  num_moves = -99,
  num_metgrid_levels = 22,
  p_top_requested = 1000.0,
  ptsgm = 15000.0,
  eta_levels = 1.0, 0.997622, 0.995078, 0.99224, 0.989036, 0.98544, 0.981451, 0.977061, 0.972249, 0.966994, 0.96128, 0.955106, 0.948462, 0.941306, 0.933562, 0.925134, 0.915937, 0.90589, 0.894913, 0.882926, 0.869842, 0.855646, 0.840183, 0.823383, 0.805217, 0.785767, 0.7651, 0.7432, 0.720133, 0.695967, 0.670867, 0.645033, 0.6187, 0.592067, 0.565333, 0.538733, 0.5125, 0.4868, 0.461767, 0.437533, 0.4142, 0.391767, 0.370233, 0.3496, 0.329867, 0.310967, 0.292867, 0.275533, 0.258933, 0.243, 0.2277, 0.213, 0.198867, 0.1853, 0.172267, 0.159733, 0.147633, 0.135967, 0.124767, 0.114033, 0.103733, 0.093867, 0.0844, 0.075333, 0.0666, 0.058267, 0.050333, 0.042833, 0.035733, 0.029, 0.0226, 0.0165, 0.010733, 0.005267, 0.0,
  use_prep_hybrid = F,
  num_metgrid_soil_levels = 4,
  corral_x = 9, 9, 9,
  corral_y = 18, 18, 18,
  smooth_option = 0,
/

&physics
  num_soil_layers = 4,
  mp_physics = 5, 5, 5,
  ra_lw_physics = 4, 4, 4,
  ra_sw_physics = 4, 4, 4,
  sf_sfclay_physics = 88, 88, 88,
  sf_surface_physics = 2, 2, 2,
  bl_pbl_physics = 3, 3, 3,
  cu_physics = 4, 4, 4,
  mommix = 1.0, 1.0, 1.0,
  var_ric = 1.0,
  coef_ric_l = 0.16,
  coef_ric_s = 0.25,
  h_diff = 1.0, 1.0, 1.0,
  gwd_opt = 2, 0, 0,
  sfenth = 0.0, 0.0, 0.0,
  nrads = 30, 90, 270,
  nradl = 30, 90, 270,
  nphs = 2, 6, 6,
  ncnvc = 2, 6, 6,
  ntrack = 6, 6, 18,
  gfs_alpha = -1.0, -1.0, -1.0,
  sas_pgcon = 0.55, 0.2, 0.2,
  sas_mass_flux = 0.5, 0.5, 0.5,
  co2tf = 1,
  vortex_tracker = 2, 2, 7,
  nomove_freq = 0, 6, 6,
  tg_option = 1,
  ntornado = 2, 6, 18,
  ens_cdamp = 0.2,
>>>>>>> b1b191b5bc4e1e579b5a1fc399451b14a647f834
  ens_pblamp = 0.2,
  ens_random_seed = 99,
  ens_sasamp = 50.0,
  icloud = 3,
<<<<<<< HEAD
  icoef_sf = 2, 2, 2,
  lcurr_sf = F, F, F,
=======
  icoef_sf = 6, 6, 6,
  iwavecpl = 0, 0, 0,
  lcurr_sf = F, F, F,
  pert_cd = F,
>>>>>>> b1b191b5bc4e1e579b5a1fc399451b14a647f834
  pert_pbl = F,
  pert_sas = F,
/

<<<<<<< HEAD
 &dynamics
 non_hydrostatic                     = .true.,    .true,        .true,
 euler_adv                           = .false.
 wp                                  = 0,         0,            0,
 coac                                =  0.75,3.0,4.0  ,
 codamp                              = 6.4,       6.4,          6.4,
 terrain_smoothing                   =       2        ,
/

 &bdy_control
 spec_bdy_width                      = 1,
 specified                           = .true. /

 &namelist_quilt 
 poll_servers                        = T,
 nio_tasks_per_group                 = 0,
 nio_groups                          = 1 /

 &logging
  compute_tasks_silent=.true.
  io_servers_silent=.true.
  stderr_logging=0
 /
=======
&dynamics
  non_hydrostatic = T, T, T,
  euler_adv = F,
  wp = 0, 0, 0,
  coac = 0.75, 1.0, 1.2,
  codamp = 6.4, 6.4, 6.4,
  terrain_smoothing = 2,
  dwdt_damping_lev = 2000.0, 2000.0, 2000.0,
/

&bdy_control
  spec_bdy_width = 1,
  specified = T,
/

&namelist_quilt
  poll_servers = T,
  nio_tasks_per_group = 4, 4, 4,
  nio_groups = 1,
/

&logging
  compute_tasks_silent = T,
  io_servers_silent = T,
  stderr_logging = 0,
/

>>>>>>> b1b191b5bc4e1e579b5a1fc399451b14a647f834
