 &time_control
 run_days                            = 0,
<<<<<<< HEAD
 run_hours                           = 48,
 run_minutes                         = 0,
 run_seconds                         = 0,
 start_year                          = 2012, 2012, 2012,
 start_month                         = 10,   10,   10,
 start_day                           = 28,   28,   28,
 start_hour                          = 12,   12,   12,
 start_minute                        = 00,   00,   00,
 start_second                        = 00,   00,   00,
 end_year                            = 2012, 2012, 2012,
 end_month                           = 10,   10,   10,
 end_day                             = 30,   30,   30,
 end_hour                            = 12,   12,   12,
 end_minute                          = 00,   00,   00,
 end_second                          = 00,   00,   00,
 interval_seconds                    = 21600
 input_from_file                     = .true.,.true.,.false.,
 history_interval                    = 30,   30,   60,
 frames_per_outfile                  = 1000, 1000, 1000,
 restart                             = .false.,
 restart_interval                    = 5000,
=======
 run_hours                           = 12,
 run_minutes                         = 0,
 run_seconds                         = 0,
 start_year                          = 2000, 2000, 2000,
 start_month                         = 01,   01,   01,
 start_day                           = 24,   24,   24,
 start_hour                          = 12,   12,   12,
 end_year                            = 2000, 2000, 2000,
 end_month                           = 01,   01,   01,
 end_day                             = 25,   25,   25,
 end_hour                            = 12,   12,   12,
 interval_seconds                    = 21600
 input_from_file                     = .true.,.true.,.true.,
 history_interval                    = 180,  60,   60,
 frames_per_outfile                  = 1000, 1000, 1000,
 restart                             = .false.,
 restart_interval                    = 7200,
>>>>>>> b1b191b5bc4e1e579b5a1fc399451b14a647f834
 io_form_history                     = 2
 io_form_restart                     = 2
 io_form_input                       = 2
 io_form_boundary                    = 2
<<<<<<< HEAD
 debug_level                         = 0
 auxinput4_inname                    = "wrflowinp_d<domain>"
 auxinput4_interval                  = 360, 360, 360,
 io_form_auxinput4                   = 2
=======
>>>>>>> b1b191b5bc4e1e579b5a1fc399451b14a647f834
 /

 &domains
 time_step                           = 180,
 time_step_fract_num                 = 0,
 time_step_fract_den                 = 1,
 max_dom                             = 1,
<<<<<<< HEAD
 e_we                                = 85,    100,   94,
 e_sn                                = 82,    100,   91,
 e_vert                              = 48,    48,    48,
 p_top_requested                     = 5000,
 num_metgrid_levels                  = 40,
=======
 e_we                                = 74,    112,   94,
 e_sn                                = 61,    97,    91,
 e_vert                              = 33,    33,    33,
 p_top_requested                     = 5000,
 num_metgrid_levels                  = 32,
>>>>>>> b1b191b5bc4e1e579b5a1fc399451b14a647f834
 num_metgrid_soil_levels             = 4,
 dx                                  = 30000, 10000,  3333.33,
 dy                                  = 30000, 10000,  3333.33,
 grid_id                             = 1,     2,     3,
 parent_id                           = 0,     1,     2,
<<<<<<< HEAD
 i_parent_start                      = 1,     33,    30,
 j_parent_start                      = 1,     8,     30,
=======
 i_parent_start                      = 1,     31,    30,
 j_parent_start                      = 1,     17,    30,
>>>>>>> b1b191b5bc4e1e579b5a1fc399451b14a647f834
 parent_grid_ratio                   = 1,     3,     3,
 parent_time_step_ratio              = 1,     3,     3,
 feedback                            = 1,
 smooth_option                       = 0
<<<<<<< HEAD
 corral_dist                         = 2,     2,     2,
 nproc_x                             = 1
 nproc_y                             = 1
 /

 &physics
 mp_physics                          = 6,     6,     6,
 cu_physics                          = 1,     1,     0,
 ra_lw_physics                       = 1,     1,     1,
 ra_sw_physics                       = 1,     1,     1,
 bl_pbl_physics                      = 1,     1,     1,
 sf_sfclay_physics                   = 1,     1,     1,
 sf_surface_physics                  = 2,     2,     2,
=======
 /

 &physics
 physics_suite                       = 'CONUS'
 mp_physics                          = -1,    -1,    -1,
 cu_physics                          = -1,    -1,     0,
 ra_lw_physics                       = -1,    -1,    -1,
 ra_sw_physics                       = -1,    -1,    -1,
 bl_pbl_physics                      = -1,    -1,    -1,
 sf_sfclay_physics                   = -1,    -1,    -1,
 sf_surface_physics                  = -1,    -1,    -1,
>>>>>>> b1b191b5bc4e1e579b5a1fc399451b14a647f834
 radt                                = 30,    30,    30,
 bldt                                = 0,     0,     0,
 cudt                                = 5,     5,     5,
 icloud                              = 1,
<<<<<<< HEAD
 surface_input_source                = 1,
 num_soil_layers                     = 4,
 num_land_cat                        = 21,
 sf_urban_physics                    = 0,     0,     0,
 sst_update                          = 1,
=======
 num_land_cat                        = 21,
 sf_urban_physics                    = 0,     0,     0,
>>>>>>> b1b191b5bc4e1e579b5a1fc399451b14a647f834
 /

 &fdda
 /

 &dynamics
 hybrid_opt                          = 2, 
 w_damping                           = 0,
 diff_opt                            = 1,      1,      1,
 km_opt                              = 4,      4,      4,
 diff_6th_opt                        = 0,      0,      0,
 diff_6th_factor                     = 0.12,   0.12,   0.12,
 base_temp                           = 290.
<<<<<<< HEAD
 damp_opt                            = 0,
=======
 damp_opt                            = 3,
>>>>>>> b1b191b5bc4e1e579b5a1fc399451b14a647f834
 zdamp                               = 5000.,  5000.,  5000.,
 dampcoef                            = 0.2,    0.2,    0.2
 khdif                               = 0,      0,      0,
 kvdif                               = 0,      0,      0,
 non_hydrostatic                     = .true., .true., .true.,
 moist_adv_opt                       = 1,      1,      1,     
 scalar_adv_opt                      = 1,      1,      1,     
 gwd_opt                             = 1,
 /

 &bdy_control
 spec_bdy_width                      = 5,
<<<<<<< HEAD
 spec_zone                           = 1,
 relax_zone                          = 4,
 specified                           = .true., .false.,.false.,
 nested                              = .false., .true., .true.,
=======
 specified                           = .true.
>>>>>>> b1b191b5bc4e1e579b5a1fc399451b14a647f834
 /

 &grib2
 /

 &namelist_quilt
 nio_tasks_per_group = 0,
 nio_groups = 1,
 /
